*Heading
** Job name: Job-1 Model name: Model-1
** Generated by: Abaqus/CAE 2024
*Preprint, echo=NO, model=NO, history=NO, contact=NO
**
** PARTS
**
*Part, name=Part-1
*Node
      1,          50.,          50.,          50.
      2,          50.,          45.,          50.
      3,          50.,          40.,          50.
      4,          50.,          35.,          50.
      5,          50.,          30.,          50.
      6,          50.,          25.,          50.
      7,          50.,          20.,          50.
      8,          50.,          15.,          50.
      9,          50.,          10.,          50.
     10,          50.,           5.,          50.
     11,          50.,           0.,          50.
     12,          50.,          50.,          45.
     13,          50.,          45.,          45.
     14,          50.,          40.,          45.
     15,          50.,          35.,          45.
     16,          50.,          30.,          45.
     17,          50.,          25.,          45.
     18,          50.,          20.,          45.
     19,          50.,          15.,          45.
     20,          50.,          10.,          45.
** ... 1311 like lines cut
*Element, type=C3D8R
   1,  122,  123,  134,  133,    1,    2,   13,   12
   2,  123,  124,  135,  134,    2,    3,   14,   13
   3,  124,  125,  136,  135,    3,    4,   15,   14
   4,  125,  126,  137,  136,    4,    5,   16,   15
   5,  126,  127,  138,  137,    5,    6,   17,   16
   6,  127,  128,  139,  138,    6,    7,   18,   17
   7,  128,  129,  140,  139,    7,    8,   19,   18
   8,  129,  130,  141,  140,    8,    9,   20,   19
   9,  130,  131,  142,  141,    9,   10,   21,   20
  10,  131,  132,  143,  142,   10,   11,   22,   21
  11,  133,  134,  145,  144,   12,   13,   24,   23
  12,  134,  135,  146,  145,   13,   14,   25,   24
  13,  135,  136,  147,  146,   14,   15,   26,   25
  14,  136,  137,  148,  147,   15,   16,   27,   26
  15,  137,  138,  149,  148,   16,   17,   28,   27
  16,  138,  139,  150,  149,   17,   18,   29,   28
  17,  139,  140,  151,  150,   18,   19,   30,   29
  18,  140,  141,  152,  151,   19,   20,   31,   30
  19,  141,  142,  153,  152,   20,   21,   32,   31
  20,  142,  143,  154,  153,   21,   22,   33,   32
** ... 980 like lines cut
*Nset, nset=Set-1, generate
    1,  1331,     1
*Elset, elset=Set-1, generate
    1,  1000,     1
** Section: Section-1
*Solid Section, elset=Set-1, material=Material-1
,
*End Part
**  
**
** ASSEMBLY
**
*Assembly, name=Assembly
**  
*Instance, name=Part-1-1, part=Part-1
*End Instance
**  
*Nset, nset=Set-1, instance=Part-1-1, generate
   11,  1331,    11
*Elset, elset=Set-1, instance=Part-1-1, generate
   10,  1000,    10
*Elset, elset=_Surf-1_S6, internal, instance=Part-1-1, generate
   1,  991,   10
*Surface, type=ELEMENT, name=Surf-1
_Surf-1_S6, S6
*End Assembly
** 
** MATERIALS
** 
*Material, name=Material-1
*Elastic
20., 0.48
** 
** BOUNDARY CONDITIONS
** 
** Name: BC-1 Type: Symmetry/Antisymmetry/Encastre
*Boundary
Set-1, ENCASTRE
** ----------------------------------------------------------------
** 
** STEP: Step-1
** 
*Step, name=Step-1, nlgeom=NO
*Static
1., 1., 1e-05, 1.
** 
** LOADS
** 
** Name: Load-1   Type: Pressure
*Dsload
Surf-1, P, 0.1
** 
** OUTPUT REQUESTS
** 
*Restart, write, frequency=0
** 
** FIELD OUTPUT: F-Output-1
** 
*Output, field, variable=PRESELECT
** 
** HISTORY OUTPUT: H-Output-1
** 
*Output, history, variable=PRESELECT
*End Step
